 .Sol file Watershed HRU:14 Subbasin:3 HRU:3 Luse:ORCD Soil: HHR Slope: 2-9999 2013-6-27 00:00:00 ArcSWAT 2009.93.7
 Soil Name: HHR
 Soil Hydrologic Group: C
 Maximum rooting depth(m) :    0.00
 Porosity fraction from which anions are excluded: 0.500
 Crack volume potential of soil: 0.500
 Texture 1                : L-CN--SIL-CNV-FSL-UWB
 Depth                [mm]:      120.00      270.00      440.00      820.00
 Bulk Density Moist [g/cc]:        1.17        1.17        2.00        1.19
 Ave. AW Incl. Rock Frag  :        0.26        0.26        0.27        0.26
 Ksat. (est.)      [mm/hr]:        3.96        3.96        2.94        0.90
 Organic Carbon [weight %]:        4.57        4.09        3.41        2.50
 Clay           [weight %]:       48.02       48.52       48.14       53.04
 Silt           [weight %]:       28.28       28.18       31.10       27.62
 Sand           [weight %]:       23.70       23.30       20.76       19.34
 Rock Fragments   [vol. %]:        0.00        0.00        0.00        0.00
 Soil Albedo (Moist)      :        0.20        0.20        0.20        0.20
 Erosion K                :        0.10        0.23        0.01        0.01
 Salinity (EC, Form 5)    :        0.00        0.00        0.00        0.00
                              
