 .Sol file Watershed HRU:41 Subbasin:6 HRU:8 Luse:URMD Soil: GLH Slope: 2-9999 2013-6-27 00:00:00 ArcSWAT 2009.93.7
 Soil Name: GLH
 Soil Hydrologic Group: D
 Maximum rooting depth(m) :    0.00
 Porosity fraction from which anions are excluded: 0.500
 Crack volume potential of soil: 0.500
 Texture 1                : SIL-SICL-SIC
 Depth                [mm]:       90.00      270.00      870.00     1020.00
 Bulk Density Moist [g/cc]:        1.21        1.46        1.44        1.77
 Ave. AW Incl. Rock Frag  :        0.28        0.24        0.21        0.19
 Ksat. (est.)      [mm/hr]:        1.16        3.45        0.91       20.21
 Organic Carbon [weight %]:        0.05        0.05        0.05        0.05
 Clay           [weight %]:       50.60       44.32       45.69        5.75
 Silt           [weight %]:       16.28       12.03       11.41       19.53
 Sand           [weight %]:       33.12       43.65       42.90       74.72
 Rock Fragments   [vol. %]:        0.00        0.00        0.00        0.00
 Soil Albedo (Moist)      :        0.00        0.00        0.00        0.00
 Erosion K                :        0.10        0.18        0.01        0.01
 Salinity (EC, Form 5)    :        0.00        0.00        0.00        0.00
                              
