 .Sol file Watershed HRU:65 Subbasin:9 HRU:10 Luse:URMD Soil: ZSDT Slope: 2-9999 2013-6-27 00:00:00 ArcSWAT 2009.93.7
 Soil Name: ZSDT
 Soil Hydrologic Group: D
 Maximum rooting depth(m) :    0.00
 Porosity fraction from which anions are excluded: 0.500
 Crack volume potential of soil: 0.500
 Texture 1                : C-C-C-C
 Depth                [mm]:      150.00      260.00      410.00      610.00      820.00
 Bulk Density Moist [g/cc]:        1.21        1.50        1.61        1.63        1.62
 Ave. AW Incl. Rock Frag  :        0.29        0.24        0.24        0.24        0.24
 Ksat. (est.)      [mm/hr]:        1.16        2.43        0.91        0.91        0.91
 Organic Carbon [weight %]:        0.05        0.05        0.05        0.05        0.05
 Clay           [weight %]:       45.96       40.51       33.84       34.85       33.77
 Silt           [weight %]:       40.11       39.29       43.09       41.31       43.46
 Sand           [weight %]:       13.93       20.20       23.07       23.84       22.77
 Rock Fragments   [vol. %]:        0.00        0.00        0.00        0.00        0.00
 Soil Albedo (Moist)      :        0.00        0.00        0.00        0.00        0.00
 Erosion K                :        0.01        0.01        0.01        0.01        0.01
 Salinity (EC, Form 5)    :        0.00        0.00        0.00        0.00        0.00
                              
